/batch
/config,noeldb,1     ! force off writing results to database
*get,_wallstrt,active,,time,wall
! ANSYS input file written by Workbench version 2024 R2
! File used for geometry attach: D:\3D Model\wrench.dsco
/title,wbnew--Static Structural (A5)
! ****** Begin Custom Load Command Snippet ******
/COM, ACT Extensions:
/COM,     LSDYNA, 2024.2
/COM,     5f463412-bd3e-484b-87e7-cbc0a665e474, wbex
/COM,/COM,     ANSYSMotion, 2024.2
/COM,     20180725-3f81-49eb-9f31-41364844c769, wbex
/COM,
! ****** End   Custom Load Command Snippet ******
*DIM,_wb_ProjectScratch_dir,string,248
_wb_ProjectScratch_dir(1) = 'C:\Users\deepa\AppData\Local\Temp\WB_deepa_14268_2\_ProjectScratch\Scr306A\'
*DIM,_wb_SolverFiles_dir,string,248
_wb_SolverFiles_dir(1) = 'C:\Users\deepa\AppData\Local\Temp\WB_deepa_14268_2\wbnew_files\dp0\SYS\MECH\'
*DIM,_wb_userfiles_dir,string,248
_wb_userfiles_dir(1) = 'C:\Users\deepa\AppData\Local\Temp\WB_deepa_14268_2\wbnew_files\user_files\'
/com,--- Data in consistent NMM units. See Solving Units in the help system for more information.
/units,MPA
/nopr
/wb,file,start              !  signify a WB generated input file
/prep7
! Turn off shape checking because checks already performed inside WB mesher.
! See help system for more information.
SHPP,OFF,,NOWARN
/nolist
etcon,set             ! allow ANSYS to choose best KEYOP's for 180x elements, resets any applicable keyopt to MAPDL defaults
/com,*********** Nodes for the whole assembly ***********
nblock,3,,13377
(1i9,3e20.9e3)
        1    -2.750000000E+01    -3.250000000E+00     8.000000000E-01
        2     2.750000000E+01    -3.250000000E+00     8.000000000E-01
        3    -2.553571429E+01    -3.250000000E+00     8.000000000E-01
        4    -2.357142857E+01    -3.250000000E+00     8.000000000E-01
        5    -2.160714286E+01    -3.250000000E+00     8.000000000E-01
        6    -1.964285714E+01    -3.250000000E+00     8.000000000E-01
        7    -1.767857143E+01    -3.250000000E+00     8.000000000E-01
        8    -1.571428571E+01    -3.250000000E+00     8.000000000E-01
        9    -1.375000000E+01    -3.250000000E+00     8.000000000E-01
       10    -1.178571429E+01    -3.250000000E+00     8.000000000E-01
       11    -9.821428571E+00    -3.250000000E+00     8.000000000E-01
       12    -7.857142857E+00    -3.250000000E+00     8.000000000E-01
       13    -5.892857143E+00    -3.250000000E+00     8.000000000E-01
       14    -3.928571429E+00    -3.250000000E+00     8.000000000E-01
       15    -1.964285714E+00    -3.250000000E+00     8.000000000E-01
       16    -1.040834086E-14    -3.250000000E+00     8.000000000E-01
       17     1.964285714E+00    -3.250000000E+00     8.000000000E-01
       18     3.928571429E+00    -3.250000000E+00     8.000000000E-01
       19     5.892857143E+00    -3.250000000E+00     8.000000000E-01
       20     7.857142857E+00    -3.250000000E+00     8.000000000E-01
! ... 12142 like lines cut
/wb,elem,start            !  set before creation of elements
/com,*********** Elements for Body 1 'Default\Solid' ***********
et,1,187
eblock,19,solid,,6409
(19i9)
        1        1        1        1        0        0        0        0       10        0        1     1116     1192     2025     1951     8617     9027     8620     8619
     9026    12140
        1        1        1        1        0        0        0        0       10        0        2     1138     2025     1192     1951     8793     9027     8787     8791
    12140     9026
        1        1        1        1        0        0        0        0       10        0        3     1116     2025     1192     1138     8620     9027     8617     8613
     8793     8787
        1        1        1        1        0        0        0        0       10        0        4     1156     1748     1179     2025     8894     8984     8893     8896
    11440     8987
        1        1        1        1        0        0        0        0       10        0        5     1179     1918     2025     1748     8986    12086     8987     8984
    11437    11440
        1        1        1        1        0        0        0        0       10        0        6     1748     1917     2025     2019    11436    12083    11440    11439
    12082    12161
        1        1        1        1        0        0        0        0       10        0        7     1748     2025     1917     1918    11440    12083    11436    11437
    12086    12080
        1        1        1        1        0        0        0        0       10        0        8     1138     2025     1917     2019     8793    12083     8790     8792
    12161    12082
        1        1        1        1        0        0        0        0       10        0        9     1116     1156     2025     1138     8614     8896     8620     8613
     8786     8793
        1        1        1        1        0        0        0        0       10        0       10     1116     1179     2025     1156     8616     8987     8620     8614
     8893     8896
! ... 12799 like lines cut
! Material Id = {27E7B9D3-5E9F-4082-A4CD-0253350D35CA}
/wb,elem,end               !  done creating elements
/com,*********** Send User Defined Coordinate System(s) ***********
csys,0
toffst,273.15,      ! Temperature offset from absolute zero
/com,*********** Set Reference Temperature ***********
tref,22.
/wb,mat,start              !  starting to send materials
/com,*********** Send Materials ***********
Temperature = 'TEMP' ! Temperature
MP,DENS,1,7.85e-09,	! tonne mm^-3
MP,ALPX,1,1.2e-05,	! C^-1
MP,C,1,434000000,	! mm^2 s^-2 C^-1
MP,KXX,1,60.5,	! tonne mm s^-3 C^-1
MP,RSVX,1,0.00017,	! ohm mm
MP,EX,1,200000,	! tonne s^-2 mm^-1
MP,NUXY,1,0.3,
MP,MURX,1,10000,
MP,UVID,1,7950f1d3-cdff-4dfc-80e7-b8201abd5d93
MP,UMID,1,59002a79-71c2-428e-906b-55d7dbee100e

/wb,mat,end                !  done sending materials
!************************* Model Summary ********************
!Default\Solid,	Structural Steel,	matid,	1
!************************* End Model Summary ********************
! get the diagonal of the bounding box. Needed later for other things
*get,_xmin,node,,mnloc,x
*get,_ymin,node,,mnloc,y
*get,_zmin,node,,mnloc,z
*get,_xmax,node,,mxloc,x
*get,_ymax,node,,mxloc,y
*get,_zmax,node,,mxloc,z
_ASMDIAG=(_xmax-_xmin)*(_xmax-_xmin)+(_ymax-_ymin)*(_ymax-_ymin)+(_zmax-_zmin)*(_zmax-_zmin)
_ASMDIAG=SQRT(_ASMDIAG)
/wb,contact,start          !  starting to send contact
/wb,contact,end            !  done creating contacts
/golist
/wb,load,start             !  starting to send loads
/com,*********** Fixed Supports ***********
CMBLOCK,_FIXEDSU,NODE,      234
(8i10)
       137       138       139       140       141       142       143       144
       145       146       147       157       158       159       160       161
       162       163       164       165       207       208       209       210
       211       212       213       214       215       216       217       259
       260       261       262       263       264       265       266       267
       277       278       279       280       281       282       283       284
      1682      1683      1684      1685      1686      1687      1688      1689
      1690      1691      1692      1693      1694      1695      1696      1697
      1698      1699      1700      1701      1702      1703      1704      1705
      3520      3522      3528      3530      3531      3532      3535      3536
      3538      3541      3542      3544      3547      3548      3551      3554
      3555      3557      3560      3561      3564      3567      3568      3570
      3573      3574      3578      3580      3581      3584      3585      3644
      3646      3647      3648      3651      3652      3654      3657      3658
      3661      3664      3666      3669      3670      3671      3673      3677
      3679      3681      3682      3683      3685      3688      3690      3692
      3693      3937      3939      3944      3947      3949      3950      3951
      3954      3956      3959      3960      3961      3963      3966      3967
      3969      3972      3973      3976      3979      3980      3982      3985
      3986      3988      3991      3992      3993      3998      4001      4002
! ... 10 like lines cut
cmsel,s,_FIXEDSU
d,all,all
nsel,all
/com,*********** Define Force Using Surface Effect Elements ***********
local,12,0,0.,0.,0.,0.,0.,0.
csys,0
et,2,154
mat,2
eblock,10,,,214
(15i9)
     9816        2        2        2       12      452      466      813      813     5439     5559      813     5441
     9817        2        2        2       12      466      465      814      814     5548     5551      814     5560
     9818        2        2        2       12      480      451      815      815     5430     5432      815     5673
     9819        2        2        2       12      467      480      816      816     5566     5674      816     5568
     9820        2        2        2       12      447      390      428      428     5090     5088      428     5296
     9821        2        2        2       12      448      447      817      817     5416     5417      817     5420
     9822        2        2        2       12      337      448      381      381     4783     5036      381     4782
     9823        2        2        2       12      383      449      391      391     5051     5093      391     5050
     9824        2        2        2       12      449      450      818      818     5422     5426      818     5423
     9825        2        2        2       12      450      322      344      344     4698     4697      344     4821
     9826        2        2        2       12      451      453      401      401     5429     5147      401     5146
     9827        2        2        2       12      453      454      402      402     5447     5152      402     5151
     9828        2        2        2       12      454      455      403      403     5454     5158      403     5157
     9829        2        2        2       12      455      456      404      404     5462     5165      404     5164
     9830        2        2        2       12      456      457      405      405     5470     5171      405     5170
     9831        2        2        2       12      457      458      406      406     5479     5176      406     5175
     9832        2        2        2       12      458      459      407      407     5488     5181      407     5180
     9833        2        2        2       12      459      460      408      408     5497     5187      408     5186
     9834        2        2        2       12      460      461      409      409     5507     5192      409     5191
     9835        2        2        2       12      461      462      410      410     5515     5198      410     5197
! ... 195 like lines cut
esel,s,type,,2
keyop,2,2,1         ! Apply load in local coordinate system
keyop,2,7,1         ! Use original area so load is constant in large deformation
esel,all
/gst,on,on
fini
*get,_numnode,node,0,count
*get,_numelem,elem,0,count
*get, _MAXELEMNUM, elem, 0, NUM, MAX
*get, _MAXNODENUM, node, 0, NUM, MAX
*get, _MAXELEMTYPE, etyp, 0, NUM, MAX
*get, _MAXREALCONST, rcon, 0, NUM, MAX
/go
/wb,load,end               !  done creating loads
/com,--- Number of total nodes = %_numnode%
/com,--- Number of contact elements = 214
/com,--- Number of spring elements = 0
/com,--- Number of bearing elements = 0
/com,--- Number of solid elements = 6409
/com,--- Number of condensed parts = 0
/com,--- Number of total elements = %_numelem%
*get,_wallbsol,active,,time,wall
/com,****************************************************************************
/com,*************************    SOLUTION       ********************************
/com,****************************************************************************
/solu
antype,0                   ! static analysis
_thickRatio=  1     ! Ratio of thick parts in the model
eqsl,pcg,1e-8,,,,,,1
cntr,print,1               ! print out contact info and also make no initial contact an error
cncheck,dmp		!	Enable program controlled contact splitting for distributed memory parallel run
dmpoption,emat,no             ! Don't combine emat file for DANSYS
dmpoption,esav,no             ! Don't combine esav file for DANSYS
nldiag,cont,iter           ! print out contact info each equilibrium iteration
rescontrol,,none                 ! Do not keep any restart files
/com,****************************************************
/com,******************* SOLVE FOR LS 1 OF 1 ****************
esel,s,type,,2
nsle
sfe,all,1,pres,1,0.
sfe,all,2,pres,1,-0.63894039640396
sfe,all,3,pres,1,0.
nsel,all
esel,all
/nopr
/gopr
nsub,1,1,1
time,1.
outres,erase
outres,all,none
outres,nsol,all,
outres,rsol,all
outres,eangl,all
outres,etmp,all
outres,veng,all
outres,strs,all,
outres,epel,all,
outres,eppl,all,
outres,cont,all,
! *********** WB SOLVE COMMAND ***********
! check interactive state
*get,ANSINTER_,active,,int
*if,ANSINTER_,ne,0,then
/eof
*endif
solve
/com *************** Write FE CONNECTORS ********* 
CEWRITE,file,ce,,INTE
/com,****************************************************
/com,*************** FINISHED SOLVE FOR LS 1 *************
*get,_wallasol,active,,time,wall
/nopr
*get,_numnode,node,0,count
*get,_numelem,elem,0,count
*get, _MAXELEMNUM, elem, 0, NUM, MAX
*get, _MAXNODENUM, node, 0, NUM, MAX,,,INTERNAL
*get, _MAXELEMTYPE, etyp, 0, NUM, MAX
*get, _MAXREALCONST, rcon, 0, NUM, MAX
*get,_NSOLTHREADS,active,0,ntfs
*get,_NSOLPROCESSES,active,0,npfs
/gopr
*get,_PCGITER,active,,solu,cgiter
/post1
xmlo,ENCODING,ISO-8859-1
xmlo,parm
/xml,parm,xml
fini
/gopr
*get,_walldone,active,,time,wall
_preptime=(_wallbsol-_wallstrt)*3600
_solvtime=(_wallasol-_wallbsol)*3600
_posttime=(_walldone-_wallasol)*3600
_totaltim=(_walldone-_wallstrt)*3600
*get,_dlbratio,active,0,solu,dlbr
*get,_combtime,active,0,solu,comb
*get,_ssmode,active,0,solu,ssmm
*get,_ndofs,active,0,solu,ndof
*get,_sol_end_time,active,0,set,time
*if,_sol_end_time,eq,1.000000,then
/fclean				!clean distributed files
*endif
/com,--- Total number of nodes = %_numnode%
/com,--- Total number of elements = %_numelem%
/com,--- Element load balance ratio = %_dlbratio%
/com,--- Time to combine distributed files = %_combtime%
/com,--- Sparse memory mode = %_ssmode%
/com,--- Number of DOF = %_ndofs%
/wb,file,end               ! done with WB generated input
