/batch
/config,noeldb,1     ! force off writing results to database
*get,_wallstrt,active,,time,wall
! ANSYS input file written by Workbench version 2024 R2
! File used for geometry attach: D:\cup.dsco
/title,wbnew--Steady-State Thermal (A5)
! ****** Begin Custom Load Command Snippet ******
/COM, ACT Extensions:
/COM,     LSDYNA, 2024.2
/COM,     5f463412-bd3e-484b-87e7-cbc0a665e474, wbex
/COM,/COM,     ANSYSMotion, 2024.2
/COM,     20180725-3f81-49eb-9f31-41364844c769, wbex
/COM,
! ****** End   Custom Load Command Snippet ******
*DIM,_wb_ProjectScratch_dir,string,248
_wb_ProjectScratch_dir(1) = 'C:\Users\deepa\AppData\Local\Temp\WB_deepa_12480_2\_ProjectScratch\Scr5C81\'
*DIM,_wb_SolverFiles_dir,string,248
_wb_SolverFiles_dir(1) = 'C:\Users\deepa\AppData\Local\Temp\WB_deepa_12480_2\wbnew_files\dp0\SYS\MECH\'
*DIM,_wb_userfiles_dir,string,248
_wb_userfiles_dir(1) = 'C:\Users\deepa\AppData\Local\Temp\WB_deepa_12480_2\wbnew_files\user_files\'
/com,--- Data in consistent NMM units. See Solving Units in the help system for more information.
/units,MPA
/nopr
/wb,file,start              !  signify a WB generated input file
/prep7
! Turn off shape checking because checks already performed inside WB mesher.
! See help system for more information.
SHPP,OFF,,NOWARN
/nolist
etcon,set             ! allow ANSYS to choose best KEYOP's for 180x elements, resets any applicable keyopt to MAPDL defaults
/com,*********** Nodes for the whole assembly ***********
nblock,3,,6286
(1i9,3e20.9e3)
        1    -8.246094703E+00     7.000000000E+00     1.009855348E-15
        2    -4.924493662E+00     7.000000000E+00     6.614184759E+00
        3     2.364367970E+00     7.000000000E+00     7.899863414E+00
        4     7.748452276E+00     7.000000000E+00     2.821270136E+00
        5     6.890244183E+00     7.000000000E+00    -4.530189063E+00
        6     4.811315535E-01     7.000000000E+00    -8.232046543E+00
        7    -6.315589302E+00     7.000000000E+00    -5.302019391E+00
        8    -1.324365508E+01     5.246950476E+00     1.621879981E-15
        9    -1.108333964E+01     5.246950476E+00     7.249412558E+00
       10    -5.307178016E+00     5.246950476E+00     1.213376535E+01
       11     2.200405720E+00     5.246950476E+00     1.305957942E+01
       12     8.990125629E+00     5.246950476E+00     9.724815739E+00
       13     1.284689280E+01     5.246950476E+00     3.217412856E+00
       14     1.251246943E+01     5.246950476E+00    -4.339643863E+00
       15     8.095958326E+00     5.246950476E+00    -1.048092833E+01
       16     1.038209033E+00     5.246950476E+00    -1.320289824E+01
       17    -6.358247210E+00     5.246950476E+00    -1.161753383E+01
       18    -1.168037887E+01     5.246950476E+00    -6.242046894E+00
       19    -1.550451520E+01     3.438262381E+00     1.898755491E-15
       20    -1.337936126E+01     3.438262381E+00     7.834710198E+00
! ... 5696 like lines cut
/wb,elem,start            !  set before creation of elements
/com,*********** Elements for Body 1 'Default\Solid' ***********
et,1,291
eblock,19,solid,,2808
(19i9)
        1        1        1        1        0        0        0        0       10        0        1      172      186      200      960     2276     2372     2277     2282
     2376     2434
        1        1        1        1        0        0        0        0       10        0        2      186      960      953      200     2376     5704     2374     2372
     2434     2433
        1        1        1        1        0        0        0        0       10        0        3      200      960      953      212     2434     5704     2433     2430
     2486     2484
        1        1        1        1        0        0        0        0       10        0        4      212      960      953      954     2486     5704     2484     2485
     5705     5703
        1        1        1        1        0        0        0        0       10        0        5      172      200      213      960     2277     2431     2278     2282
     2434     2492
        1        1        1        1        0        0        0        0       10        0        6      200      960      212      213     2434     2486     2430     2431
     2492     2481
        1        1        1        1        0        0        0        0       10        0        7      171      212      954      960     2272     2485     2273     2274
     2486     5705
        1        1        1        1        0        0        0        0       10        0        8      171      954      172      960     2273     2281     2269     2274
     5705     2282
        1        1        1        1        0        0        0        0       10        0        9      157      212      171      960     2159     2272     2158     2161
     2486     2274
        1        1        1        1        0        0        0        0       10        0       10      157      171      158      960     2158     2163     2156     2161
     2274     2168
! ... 5597 like lines cut
! Material Id = {C3D3FBAF-DB2A-4A59-B3EF-BE12B985B2B6}
/wb,elem,end               !  done creating elements
/com,*********** Send User Defined Coordinate System(s) ***********
csys,0
toffst,273.15,      ! Temperature offset from absolute zero
/wb,mat,start              !  starting to send materials
/com,*********** Send Materials ***********
Temperature = 'TEMP' ! Temperature
MP,DENS,1,9.5e-10,	! tonne mm^-3
MP,ALPX,1,0.00023,	! C^-1
MP,C,1,2300000000,	! mm^2 s^-2 C^-1
MP,KXX,1,0.28,	! tonne mm s^-3 C^-1
MP,EX,1,1100,	! tonne s^-2 mm^-1
MP,NUXY,1,0.42,
MP,UVID,1,0792c12c-dded-4b3c-bba0-247bc3ea9676
MP,UMID,1,69133b05-c5ac-4f99-9d5c-48e5b3d8de40

/wb,mat,end                !  done sending materials
!************************* Model Summary ********************
!Default\Solid,	Polyethylene,	matid,	1
!************************* End Model Summary ********************
! get the diagonal of the bounding box. Needed later for other things
*get,_xmin,node,,mnloc,x
*get,_ymin,node,,mnloc,y
*get,_zmin,node,,mnloc,z
*get,_xmax,node,,mxloc,x
*get,_ymax,node,,mxloc,y
*get,_zmax,node,,mxloc,z
_ASMDIAG=(_xmax-_xmin)*(_xmax-_xmin)+(_ymax-_ymin)*(_ymax-_ymin)+(_zmax-_zmin)*(_zmax-_zmin)
_ASMDIAG=SQRT(_ASMDIAG)
/wb,contact,start          !  starting to send contact
/wb,contact,end            !  done creating contacts
/golist
/wb,load,start             !  starting to send loads
/com,*********** Define Temperature Constraint ***********
CMBLOCK,_CM44   ,NODE,     1575
(8i10)
         1         2         3         4         5         6         7         8
         9        10        11        12        13        14        15        16
        17        18        19        20        21        22        23        24
        25        26        27        28        29        30        31        32
        33        34        35        36        37        38        39        40
        41        42        43        44        45        46        47        48
        49        50        51        52        53        54        55        56
        57        58        59        60        61        62        63        64
        65        66        67        68        69        70        71        72
        73        74        75        76        77        78        79        80
        81        82        83        84        85        86        87        88
        89        90        91        92        93        94        95        96
        97        98        99       100       101       102       103       104
       105       106       107       108       109       110       111       112
       113       114       115       116       117       118       119       120
       121       122       123       124       125       126       127       128
       129       130       131       132       133       134       135       136
       137       138       139       693       694       695       696       697
       698       699       700       701       702       703       704       705
       706       707       708       709       710       711       712       713
! ... 177 like lines cut
fcum,add                   ! add nodal forces up (needed in case have loads on the same edge,vertex)
fcum                       ! reset default on fcum command since done sending WB F loads
/com,*********** Create "Convection" ***********
et,2,152
eblock,10,,,798
(15i9)
     4731        2        2        2        0      315      335      298      298     2893     2831      298     2829
     4732        2        2        2        0      315      298      316      316     2829     2830      316     2892
     4733        2        2        2        0      314      298      335      335     2828     2831      335     2889
     4734        2        2        2        0      314      335      334      334     2889     2971      334     2888
     4735        2        2        2        0      317      316      299      299     2896     2834      299     2835
     4736        2        2        2        0      299      316      298      298     2834     2830      298     2827
     4737        2        2        2        0      318      317      300      300     2899     2837      300     2838
     4738        2        2        2        0      300      317      299      299     2837     2835      299     2833
     4739        2        2        2        0      318      300      301      301     2838     2836      301     2840
     4740        2        2        2        0      318      301      319      319     2840     2841      319     2903
     4741        2        2        2        0      319      301      302      302     2841     2839      302     2843
     4742        2        2        2        0      330      329      310      310     2948     2873      310     2874
     4743        2        2        2        0      330      310      311      311     2874     2872      311     2876
     4744        2        2        2        0      334      333      313      313     2966     2884      313     2885
     4745        2        2        2        0      334      313      314      314     2885     2883      314     2888
     4746        2        2        2        0      313      333      312      312     2884     2881      312     2879
     4747        2        2        2        0      312      333      332      332     2881     2960      332     2880
     4748        2        2        2        0      312      332      311      311     2880     2878      311     2875
     4749        2        2        2        0      320      319      302      302     2908     2843      302     2844
     4750        2        2        2        0      320      302      321      321     2844     2845      321     2911
! ... 779 like lines cut
esel,s,type,,2
keyop,2,8,2
keyop,2,13,0
esel,all
/com,*********** Create "ToAmbient" Radiation ***********
n,5716,_ASMDIAG*0.5*1,0.,0.
nsel,s,node,,5716
cm,_SPND48,node
nsel,all
et,3,152
keyop,3,5,1         !  Extra node
keyop,3,9,1         !  Use radiation with the form factor real constant
eblock,10,,,332
(15i9)
     5529        3        3        3        0      178      192      400      400     2321     2402      400     2328     5716
     5530        3        3        3        0      169      195      181      181     2255     2345      181     2253     5716
     5531        3        3        3        0      181      195      180      180     2345     2339      180     2337     5716
     5532        3        3        3        0      173      187      401      401     2284     2381      401     2289     5716
     5533        3        3        3        0      179      194      193      193     2331     2403      193     2330     5716
     5534        3        3        3        0      178      193      192      192     2322     2398      192     2321     5716
     5535        3        3        3        0      177      191      176      176     2313     2306      176     2304     5716
     5536        3        3        3        0      180      194      179      179     2338     2331      179     2329     5716
     5537        3        3        3        0      176      191      190      190     2306     2390      190     2305     5716
     5538        3        3        3        0      179      193      178      178     2330     2322      178     2320     5716
     5539        3        3        3        0      169      183      195      195     2254     2359      195     2255     5716
     5540        3        3        3        0      180      195      194      194     2339     2406      194     2338     5716
     5541        3        3        3        0      177      178      400      400     2312     2328      400     2318     5716
     5542        3        3        3        0      176      190      175      175     2305     2301      175     2299     5716
     5543        3        3        3        0      177      400      191      191     2318     2397      191     2313     5716
     5544        3        3        3        0      175      190      189      189     2301     2386      189     2300     5716
     5545        3        3        3        0      170      185      184      184     2265     2364      184     2264     5716
     5546        3        3        3        0      174      189      188      188     2293     2382      188     2292     5716
     5547        3        3        3        0      174      188      187      187     2292     2377      187     2291     5716
     5548        3        3        3        0      175      189      174      174     2300     2293      174     2290     5716
! ... 313 like lines cut
esel,s,type,,3
mp,emis,3,1.
r,3,1.,5.669e-011
stef,5.669e-011
esel,all
nsel,all
/com,***************** Define Uniform Initial temperature ***************
tunif,22.
/gst,on,on
fini
*get,_numnode,node,0,count
*get,_numelem,elem,0,count
*get, _MAXELEMNUM, elem, 0, NUM, MAX
*get, _MAXNODENUM, node, 0, NUM, MAX
*get, _MAXELEMTYPE, etyp, 0, NUM, MAX
*get, _MAXREALCONST, rcon, 0, NUM, MAX
/go
/wb,load,end               !  done creating loads
/com,--- Number of total nodes = %_numnode%
/com,--- Number of contact elements = 1130
/com,--- Number of spring elements = 0
/com,--- Number of bearing elements = 0
/com,--- Number of solid elements = 2808
/com,--- Number of condensed parts = 0
/com,--- Number of total elements = %_numelem%
*get,_wallbsol,active,,time,wall
/com,****************************************************************************
/com,*************************    SOLUTION       ********************************
/com,****************************************************************************
/solu
antype,0                   ! static analysis
!eqsl,sparse               ! using sparse solver which is default so no eqsl command needed
cntr,print,1               ! print out contact info and also make no initial contact an error
cncheck,dmp		!	Enable program controlled contact splitting for distributed memory parallel run
rescontrol,,none                 ! Do not keep any restart files
dmpoption,emat,no             ! Don't combine emat file for DANSYS
dmpoption,esav,no             ! Don't combine esav file for DANSYS
/com,****************************************************
/com,******************* SOLVE FOR LS 1 OF 1 ****************
d,_CM44,temp,85.
esel,s,type,,2
nsle
sf,all,conv,25000.,22.
nsel,all
esel,all
d,_SPND48,temp,23.
/nopr
/gopr
autots,on
nsub,1,10,1
time,1.
outres,erase
outres,all,none
outres,nsol,all
outres,rsol,all
outres,eangl,all
outres,veng,all
outres,fflux,all,
outres,cont,all,
/nopr
esel,s,type,,2
esel,a,type,,3
cm,_elmisc,elem
esel,all
/gopr
outres,misc,all,_elmisc
cnvtol,heat,,1.e-003,,1.e-003 ! Program Controlled. Set MINREF equivalent of 1e-6 Watts
! *********** WB SOLVE COMMAND ***********
! check interactive state
*get,ANSINTER_,active,,int
*if,ANSINTER_,ne,0,then
/eof
*endif
solve
/com *************** Write FE CONNECTORS ********* 
CEWRITE,file,ce,,INTE
/com,****************************************************
/com,*************** FINISHED SOLVE FOR LS 1 *************
*get,_wallasol,active,,time,wall
/post1
xmlo,ENCODING,ISO-8859-1
xmlo,parm
/xml,parm,xml
fini
/gopr
*get,_walldone,active,,time,wall
_preptime=(_wallbsol-_wallstrt)*3600
_solvtime=(_wallasol-_wallbsol)*3600
_posttime=(_walldone-_wallasol)*3600
_totaltim=(_walldone-_wallstrt)*3600
*get,_dlbratio,active,0,solu,dlbr
*get,_combtime,active,0,solu,comb
*get,_ssmode,active,0,solu,ssmm
*get,_ndofs,active,0,solu,ndof
/fclean				!clean distributed files
/com,--- Total number of nodes = %_numnode%
/com,--- Total number of elements = %_numelem%
/com,--- Element load balance ratio = %_dlbratio%
/com,--- Time to combine distributed files = %_combtime%
/com,--- Sparse memory mode = %_ssmode%
/com,--- Number of DOF = %_ndofs%
/wb,file,end               ! done with WB generated input
