/batch
/config,noeldb,1     ! force off writing results to database
*get,_wallstrt,active,,time,wall
! ANSYS input file written by Workbench version 2024 R2
! File used for geometry attach: C:\Users\deepa\AppData\Local\Temp\WB_deepa_9560_2\wbnew_files\dp0\SYS\DM\SYS.dsco
/title,wbnew--Static Structural (A5)
! ****** Begin Custom Load Command Snippet ******
/COM, ACT Extensions:
/COM,     LSDYNA, 2024.2
/COM,     5f463412-bd3e-484b-87e7-cbc0a665e474, wbex
/COM,/COM,     ANSYSMotion, 2024.2
/COM,     20180725-3f81-49eb-9f31-41364844c769, wbex
/COM,
! ****** End   Custom Load Command Snippet ******
*DIM,_wb_ProjectScratch_dir,string,248
_wb_ProjectScratch_dir(1) = 'C:\Users\deepa\AppData\Local\Temp\WB_deepa_9560_2\_ProjectScratch\Scr0B9E\'
*DIM,_wb_SolverFiles_dir,string,248
_wb_SolverFiles_dir(1) = 'C:\Users\deepa\AppData\Local\Temp\WB_deepa_9560_2\wbnew_files\dp0\SYS\MECH\'
*DIM,_wb_userfiles_dir,string,248
_wb_userfiles_dir(1) = 'C:\Users\deepa\AppData\Local\Temp\WB_deepa_9560_2\wbnew_files\user_files\'
/com,--- Data in consistent MKS units. See Solving Units in the help system for more information.
/units,MKS
/nopr
/wb,file,start              !  signify a WB generated input file
/prep7
! Turn off shape checking because checks already performed inside WB mesher.
! See help system for more information.
SHPP,OFF,,NOWARN
/nolist
etcon,set             ! allow ANSYS to choose best KEYOP's for 180x elements, resets any applicable keyopt to MAPDL defaults
/com,*********** Nodes for the whole assembly ***********
nblock,3,,4031
(1i9,3e20.9e3)
        1    -7.500000000E-02    -2.500000000E-02    -2.500000000E-02
        2    -7.500000000E-02    -5.000000000E-02    -2.500000000E-02
        3    -7.500000000E-02    -7.500000000E-02    -2.500000000E-02
        4    -5.000000000E-02    -2.500000000E-02    -2.500000000E-02
        5    -5.000000000E-02    -5.000000000E-02    -2.500000000E-02
        6    -5.000000000E-02    -7.500000000E-02    -2.500000000E-02
        7    -2.500000000E-02    -2.500000000E-02    -2.500000000E-02
        8    -2.500000000E-02    -5.000000000E-02    -2.500000000E-02
        9    -2.500000000E-02    -7.500000000E-02    -2.500000000E-02
       10    -7.500000000E-02    -2.500000000E-02    -5.000000000E-02
       11    -7.500000000E-02    -5.000000000E-02    -5.000000000E-02
       12    -7.500000000E-02    -7.500000000E-02    -5.000000000E-02
       13    -5.000000000E-02    -2.500000000E-02    -5.000000000E-02
       14    -5.000000000E-02    -5.000000000E-02    -5.000000000E-02
       15    -5.000000000E-02    -7.500000000E-02    -5.000000000E-02
       16    -2.500000000E-02    -2.500000000E-02    -5.000000000E-02
       17    -2.500000000E-02    -5.000000000E-02    -5.000000000E-02
       18    -2.500000000E-02    -7.500000000E-02    -5.000000000E-02
       19    -7.500000000E-02    -2.500000000E-02    -7.500000000E-02
       20    -7.500000000E-02    -5.000000000E-02    -7.500000000E-02
! ... 3646 like lines cut
/wb,elem,start            !  set before creation of elements
/com,*********** Elements for Body 1 'SYS\Solid' ***********
et,1,186
keyo,1,2,1          ! set full integration on SOLID186
eblock,19,solid,,640
(19i9)
        1        1        1        1        0        0        0        0       20        0        1        1      870      708      700      468      987      709      705
     1031     3119     3106     1030     2597     3120     3113     2596     1029     3399     3118     3105
        1        1        1        1        0        0        0        0       20        0        2        1      700      708      870        2      701      707      871
     1030     3106     3119     1031     1035     3108     3117     1036     1026     3104     3116     3397
        1        1        1        1        0        0        0        0       20        0        3        2      701      707      871        3      702      706      872
     1035     3108     3117     1036     1040     3109     3115     1041     1032     3107     3114     3400
        1        1        1        1        0        0        0        0       20        0        4        3      702      706      872      469      667      668      624
     1040     3109     3115     1041     2601     3038     2951     2600     1039     3039     3040     2952
        1        1        1        1        0        0        0        0       20        0        5        1       10      873      870      468      465      988      987
     1028     1072     3398     1031     2589     2590     3628     2597     1029     1071     3405     3399
        1        1        1        1        0        0        0        0       20        0        6        1      870      873       10        2      871      874       11
     1031     3398     1072     1028     1036     3401     1076     1034     1026     3397     3403     1068
        1        1        1        1        0        0        0        0       20        0        7        2      871      874       11        3      872      875       12
     1036     3401     1076     1034     1041     3402     1080     1038     1032     3400     3406     1073
        1        1        1        1        0        0        0        0       20        0        8        3      872      875       12      469      624      623      472
     1041     3402     1080     1038     2600     2949     2610     2599     1039     2952     2950     1079
        1        1        1        1        0        0        0        0       20        0        9       10       19      876      873      465      462      989      988
     1070     1105     3404     1072     2582     2583     3629     2590     1071     1104     3411     3405
        1        1        1        1        0        0        0        0       20        0       10       10      873      876       19       11      874      877       20
     1072     3404     1105     1070     1076     3407     1109     1075     1068     3403     3409     1101
! ... 1261 like lines cut
! Material Id = {36BD796C-8629-4B61-9EC9-21F13A44FA55}
/wb,elem,end               !  done creating elements
/com,*********** Send User Defined Coordinate System(s) ***********
csys,0
toffst,273.15,      ! Temperature offset from absolute zero
/com,*********** Set Reference Temperature ***********
tref,22.
/wb,mat,start              !  starting to send materials
/com,*********** Send Materials ***********
MP,EX,1,8000000000,	! Pa
MP,NUXY,1,0.3,
MP,UVID,1,f0d6df6f-8265-48c0-ad00-d3db46dc4726

/wb,mat,end                !  done sending materials
!************************* Model Summary ********************
!SYS\Solid,	wood,	matid,	1
!************************* End Model Summary ********************
! get the diagonal of the bounding box. Needed later for other things
*get,_xmin,node,,mnloc,x
*get,_ymin,node,,mnloc,y
*get,_zmin,node,,mnloc,z
*get,_xmax,node,,mxloc,x
*get,_ymax,node,,mxloc,y
*get,_zmax,node,,mxloc,z
_ASMDIAG=(_xmax-_xmin)*(_xmax-_xmin)+(_ymax-_ymin)*(_ymax-_ymin)+(_zmax-_zmin)*(_zmax-_zmin)
_ASMDIAG=SQRT(_ASMDIAG)
/wb,contact,start          !  starting to send contact
/wb,contact,end            !  done creating contacts
/golist
/wb,load,start             !  starting to send loads
/com,*********** Fixed Supports ***********
CMBLOCK,_FIXEDSU,NODE,       65
(8i10)
       664       665       666       667       668       694       695       696
       697       698       699       700       701       702       703       704
       705       706       707       708       709       710       711       712
       713      3032      3033      3034      3035      3036      3037      3038
      3039      3040      3089      3090      3091      3092      3093      3094
      3095      3096      3097      3098      3099      3100      3101      3102
      3103      3104      3105      3106      3107      3108      3109      3110
      3111      3112      3113      3114      3116      3118      3121      3123
      3125
cmsel,s,_FIXEDSU
d,all,all
nsel,all
/com,*********** Define Pressure Using Surface Effect Elements "Pressure" ***********
et,2,154
mat,2
eblock,10,,,16
(15i9)
     1313        2        2        2        0      672      674      686      673     3048     3052     3049     3047
     1314        2        2        2        0      671      677      674      672     3046     3051     3048     3045
     1315        2        2        2        0      670      680      677      671     3044     3060     3046     3043
     1316        2        2        2        0      669      693      680      670     3042     3066     3044     3041
     1317        2        2        2        0      674      675      687      686     3050     3055     3075     3052
     1318        2        2        2        0      677      678      675      674     3059     3054     3050     3051
     1319        2        2        2        0      680      681      678      677     3065     3062     3059     3060
     1320        2        2        2        0      693      692      681      680     3086     3068     3065     3066
     1321        2        2        2        0      675      676      688      687     3053     3058     3077     3055
     1322        2        2        2        0      678      679      676      675     3061     3056     3053     3054
     1323        2        2        2        0      681      682      679      678     3067     3063     3061     3062
     1324        2        2        2        0      692      691      682      681     3084     3070     3067     3068
     1325        2        2        2        0      676      683      689      688     3057     3072     3079     3058
     1326        2        2        2        0      679      684      683      676     3064     3071     3057     3056
     1327        2        2        2        0      682      685      684      679     3069     3073     3064     3063
     1328        2        2        2        0      691      690      685      682     3082     3074     3069     3070
-1
esel,s,type,,2
keyop,2,7,0         ! Use deformed area for application of load
esel,all
esel,all
/gst,on,on
fini
*get,_numnode,node,0,count
*get,_numelem,elem,0,count
*get, _MAXELEMNUM, elem, 0, NUM, MAX
*get, _MAXNODENUM, node, 0, NUM, MAX
*get, _MAXELEMTYPE, etyp, 0, NUM, MAX
*get, _MAXREALCONST, rcon, 0, NUM, MAX
/go
/wb,load,end               !  done creating loads
/com,--- Number of total nodes = %_numnode%
/com,--- Number of contact elements = 16
/com,--- Number of spring elements = 0
/com,--- Number of bearing elements = 0
/com,--- Number of solid elements = 640
/com,--- Number of condensed parts = 0
/com,--- Number of total elements = %_numelem%
*get,_wallbsol,active,,time,wall
/com,****************************************************************************
/com,*************************    SOLUTION       ********************************
/com,****************************************************************************
/solu
antype,0                   ! static analysis
_thickRatio=  1     ! Ratio of thick parts in the model
eqsl,pcg,1e-8,,,,,,1
cntr,print,1               ! print out contact info and also make no initial contact an error
cncheck,dmp		!	Enable program controlled contact splitting for distributed memory parallel run
dmpoption,emat,no             ! Don't combine emat file for DANSYS
dmpoption,esav,no             ! Don't combine esav file for DANSYS
nldiag,cont,iter           ! print out contact info each equilibrium iteration
rescontrol,,none                 ! Do not keep any restart files
/com,****************************************************
/com,******************* SOLVE FOR LS 1 OF 1 ****************
esel,s,type,,2
nsle
sf,all,pres,30000.
nsel,all
esel,all
esel,all
/nopr
/gopr
nsub,1,1,1
time,1.
outres,erase
outres,all,none
outres,nsol,all,
outres,rsol,all
outres,eangl,all
outres,etmp,all
outres,veng,all
outres,strs,all,
outres,epel,all,
outres,eppl,all,
outres,cont,all,
! *********** WB SOLVE COMMAND ***********
! check interactive state
*get,ANSINTER_,active,,int
*if,ANSINTER_,ne,0,then
/eof
*endif
solve
/com *************** Write FE CONNECTORS ********* 
CEWRITE,file,ce,,INTE
/com,****************************************************
/com,*************** FINISHED SOLVE FOR LS 1 *************
*get,_wallasol,active,,time,wall
/nopr
*get,_numnode,node,0,count
*get,_numelem,elem,0,count
*get, _MAXELEMNUM, elem, 0, NUM, MAX
*get, _MAXNODENUM, node, 0, NUM, MAX,,,INTERNAL
*get, _MAXELEMTYPE, etyp, 0, NUM, MAX
*get, _MAXREALCONST, rcon, 0, NUM, MAX
*get,_NSOLTHREADS,active,0,ntfs
*get,_NSOLPROCESSES,active,0,npfs
/gopr
*get,_PCGITER,active,,solu,cgiter
/post1
xmlo,ENCODING,ISO-8859-1
xmlo,parm
/xml,parm,xml
fini
/gopr
*get,_walldone,active,,time,wall
_preptime=(_wallbsol-_wallstrt)*3600
_solvtime=(_wallasol-_wallbsol)*3600
_posttime=(_walldone-_wallasol)*3600
_totaltim=(_walldone-_wallstrt)*3600
*get,_dlbratio,active,0,solu,dlbr
*get,_combtime,active,0,solu,comb
*get,_ssmode,active,0,solu,ssmm
*get,_ndofs,active,0,solu,ndof
*get,_sol_end_time,active,0,set,time
*if,_sol_end_time,eq,1.000000,then
/fclean				!clean distributed files
*endif
/com,--- Total number of nodes = %_numnode%
/com,--- Total number of elements = %_numelem%
/com,--- Element load balance ratio = %_dlbratio%
/com,--- Time to combine distributed files = %_combtime%
/com,--- Sparse memory mode = %_ssmode%
/com,--- Number of DOF = %_ndofs%
/wb,file,end               ! done with WB generated input
